Circuit: * C:\Users\aaron\OneDrive\Desktop\repos\SSS_Motherboard\Blue_Module.asc

Warning: Multiple definitions of model "2scr375p" Type: BJT
Warning: Multiple definitions of model "bc857b" Type: BJT
Warning: Multiple definitions of model "bc847c" Type: BJT
Warning: Multiple definitions of model "bc847b" Type: BJT
.OP point found by inspection.

Date: Thu Apr 10 13:41:05 2025
Total elapsed time: 0.171 seconds.

tnom = 27
temp = 27
method = modified trap
totiter = 7246
traniter = 7246
tranpoints = 2571
accept = 2179
rejected = 392
matrix size = 22
fillins = 17
solver = Normal
Avg thread counts: 1.3/1.8/1.8/1.3
Matrix Compiler1: 2.34 KB object code size  0.9/0.5/[0.5]
Matrix Compiler2: 2.12 KB object code size  0.2/0.2/[0.2]

