Circuit: * C:\Users\aaron\OneDrive\Desktop\repos\SSS_Motherboard\Draft1.asc

.OP point found by inspection.

Date: Sat May 10 12:33:48 2025
Total elapsed time: 0.536 seconds.

tnom = 27
temp = 27
method = modified trap
totiter = 238224
traniter = 238224
tranpoints = 119113
accept = 102035
rejected = 17078
matrix size = 3
fillins = 0
solver = Normal
Avg thread counts: 1.0/1.0/1.0/1.0
Matrix Compiler1: off  [0.1]/0.1/0.1
Matrix Compiler2: off  [0.1]/0.2/0.1

