Circuit: * C:\Users\aaron\OneDrive\Desktop\repos\SSS_Motherboard\Draft3.asc

WARNING: Less than two connections to node input.  This node is used by v1.
.OP point found by inspection.

Date: Thu Mar 27 14:04:51 2025
Total elapsed time: 0.064 seconds.

tnom = 27
temp = 27
method = modified trap
totiter = 2350
traniter = 2350
tranpoints = 1176
accept = 1146
rejected = 30
matrix size = 2
fillins = 0
solver = Normal
Avg thread counts: 1.9/2.8/2.8/1.9
Matrix Compiler1: off  [0.0]/0.0/0.0
Matrix Compiler2: 82 bytes object code size  0.1/0.1/[0.1]

