Circuit: * C:\Users\aaron\OneDrive\Desktop\repos\SSS_Motherboard\hardware\Draft5.asc

Direct Newton iteration for .op point succeeded.

Date: Mon Jul 28 22:47:53 2025
Total elapsed time: 0.078 seconds.

tnom = 27
temp = 27
method = modified trap
totiter = 2085
traniter = 2082
tranpoints = 1042
accept = 1042
rejected = 0
matrix size = 5
fillins = 1
solver = Normal
Avg thread counts: 2.0/3.0/3.0/2.0
Matrix Compiler1:      24 opcodes  0.3/[0.2]/0.2
Matrix Compiler2: 451 bytes object code size  0.1/0.2/[0.1]

