Circuit: * C:\Users\aaron\OneDrive\Desktop\repos\SSS_Motherboard\hardware\Draft3.asc

Direct Newton iteration for .op point succeeded.

Date: Tue Jul 29 15:05:42 2025
Total elapsed time: 0.103 seconds.

tnom = 27
temp = 27
method = modified trap
totiter = 3616
traniter = 3596
tranpoints = 1599
accept = 1460
rejected = 139
matrix size = 11
fillins = 2
solver = Normal
Avg thread counts: 1.6/2.3/2.2/1.6
Matrix Compiler1: 1.04 KB object code size  0.4/0.4/[0.4]
Matrix Compiler2: off  [0.2]/0.4/0.2

