Circuit: * C:\Users\aaron\OneDrive\Desktop\repos\SSS_Motherboard\Draft4.asc

c1: both pins shorted together -- ignoring.
