Circuit: * C:\Users\aaron\OneDrive\Desktop\repos\SSS_Motherboard\hardware\Draft2.asc

Direct Newton iteration for .op point succeeded.

Date: Mon Jul 28 20:07:44 2025
Total elapsed time: 0.107 seconds.

tnom = 27
temp = 27
method = modified trap
totiter = 16789
traniter = 16769
tranpoints = 6393
accept = 5441
rejected = 952
matrix size = 10
fillins = 2
solver = Normal
Avg thread counts: 1.1/1.3/1.3/1.1
Matrix Compiler1: 762 bytes object code size  0.4/0.2/[0.2]
Matrix Compiler2: 902 bytes object code size  0.2/0.1/[0.1]

