Circuit: * C:\Users\aaron\OneDrive\Desktop\repos\SSS_Motherboard\hardware\PWM_Filter.asc

Warning: Multiple definitions of model "2scr375p" Type: BJT
Warning: Multiple definitions of model "bc857b" Type: BJT
Warning: Multiple definitions of model "bc847c" Type: BJT
Warning: Multiple definitions of model "bc847b" Type: BJT
WARNING: Node N002 is floating.

WARNING: Less than two connections to node n002.  This node is used by r6.
Direct Newton iteration for .op point succeeded.
Heightened Def Con from 4e-05 to 4e-05
Heightened Def Con from 0.00022 to 0.000220005
Heightened Def Con from 0.000359918 to 0.00035992

Date: Mon Jul 28 17:52:15 2025
Total elapsed time: 0.149 seconds.

tnom = 27
temp = 27
method = modified trap
totiter = 26415
traniter = 26394
tranpoints = 8883
accept = 7424
rejected = 1462
matrix size = 16
fillins = 12
solver = Normal
Avg thread counts: 1.1/1.2/1.2/1.1
Matrix Compiler1: 1.81 KB object code size  0.6/0.4/[0.4]
Matrix Compiler2: 1.57 KB object code size  0.2/0.3/[0.2]

