Circuit: * C:\Users\aaron\OneDrive\Desktop\repos\SSS_Motherboard\hardware\PWM_Filter.asc

c2: both pins shorted together -- ignoring.
WARNING: Less than two connections to node n001.  This node is used by r1.
Direct Newton iteration for .op point succeeded.

Date: Sat Jul 12 00:19:02 2025
Total elapsed time: 0.138 seconds.

tnom = 27
temp = 27
method = modified trap
totiter = 14984
traniter = 14964
tranpoints = 6596
accept = 5574
rejected = 1022
matrix size = 10
fillins = 0
solver = Normal
Avg thread counts: 1.1/1.3/1.3/1.1
Matrix Compiler1:      21 opcodes  0.2/[0.1]/0.2
Matrix Compiler2: 678 bytes object code size  0.1/0.2/[0.1]

