Circuit: * C:\Users\aaron\OneDrive\Desktop\repos\SSS_Motherboard\SCRSimulation.asc

Direct Newton iteration for .op point succeeded.

Date: Mon Jul  7 17:09:04 2025
Total elapsed time: 0.087 seconds.

tnom = 27
temp = 27
method = modified trap
totiter = 8590
traniter = 8580
tranpoints = 3005
accept = 2561
rejected = 444
matrix size = 30
fillins = 14
solver = Normal
Avg thread counts: 1.2/1.7/1.6/1.2
Matrix Compiler1: 1.48 KB object code size  0.7/0.4/[0.3]
Matrix Compiler2: 2.16 KB object code size  0.2/0.2/[0.1]

